<?xml version="1.0" encoding="UTF-8"?>

<net version="1.20" junctionCornerDetail="5" limitTurnSpeed="5.50"
     xmlns:xsi="http://www.w3.org/2001/XMLSchema-instance"
     xsi:noNamespaceSchemaLocation="http://sumo.dlr.de/xsd/net_file.xsd">

    <location netOffset="0.00,0.00"
              convBoundary="0.00,0.00,8000.00,0.00"
              origBoundary="0.00,0.00,8000.00,0.00"
              projParameter="!"/>

    <edge id="edge0" from="start" to="end" priority="-1">
        <lane id="edge0_0"
              index="0"
              speed="33.33"
              length="8000.00"
              shape="0.00,-1.60 8000.00,-1.60"/>
    </edge>

    <junction id="end"
              type="dead_end"
              x="8000.00"
              y="0.00"
              incLanes="edge0_0"
              intLanes=""
              shape="8000.00,-3.20 8000.00,0.00"/>
    <junction id="start"
              type="dead_end"
              x="0.00"
              y="0.00"
              incLanes=""
              intLanes=""
              shape="0.00,0.00 0.00,-3.20"/>

</net>